@<TRIPOS>MOLECULE
****
21 21 1 0 0
SMALL
USER_CHARGES


@<TRIPOS>ATOM
      1 O         -42.9802   -2.8606    0.0793 O.2       1     ****    0.0000
      2 C         -44.0052   -2.2171    0.2071 C.2       1     ****    0.0000
      3 O         -45.1542   -2.9440    0.2911 O.3       1     ****    0.0000
      4 C         -44.0148   -0.8455    0.2447 C.ar      1     ****    0.0000
      5 C         -45.2058   -0.2187    0.3460 C.ar      1     ****    0.0000
      6 C         -45.3083    1.1169    0.3758 C.ar      1     ****    0.0000
      7 C         -44.1971    1.8556    0.2968 C.ar      1     ****    0.0000
      8 C         -43.0113    1.2399    0.2023 C.ar      1     ****    0.0000
      9 C         -42.8758   -0.1041    0.1854 C.ar      1     ****    0.0000
     10 O         -41.6358   -0.6924    0.0975 O.3       1     ****    0.0000
     11 C         -40.5211    0.0719    0.2742 C.2       1     ****    0.0000
     12 C         -39.7155    0.1526   -1.0087 C.3       1     ****    0.0000
     13 O         -40.2137    0.6070    1.3173 O.2       1     ****    0.0000
     14 H         -45.9345   -2.3916    0.4352 H         1     ****    0.0000
     15 H         -46.1632   -0.7597    0.4014 H         1     ****    0.0000
     16 H         -46.2938    1.6062    0.4536 H         1     ****    0.0000
     17 H         -44.2607    2.9567    0.3082 H         1     ****    0.0000
     18 H         -42.1307    1.8993    0.1324 H         1     ****    0.0000
     19 H         -40.3190    0.6241   -1.8173 H         1     ****    0.0000
     20 H         -38.7994    0.7674   -0.8601 H         1     ****    0.0000
     21 H         -39.3999   -0.8648   -1.3334 H         1     ****    0.0000
@<TRIPOS>BOND
     1     1     2     2
     2     2     3     1
     3     2     4     1
     4     3    14     1
     5     4     5     1
     6     4     9     2
     7     5     6     2
     8     5    15     1
     9     6     7     1
    10     6    16     1
    11     7     8     2
    12     7    17     1
    13     8     9     1
    14     8    18     1
    15     9    10     1
    16    10    11     1
    17    11    12     1
    18    11    13     2
    19    12    19     1
    20    12    20     1
    21    12    21     1
