# created with PyMOL 3.1.4
@<TRIPOS>MOLECULE
Au13_1
13 0 13                 
SMALL
USER_CHARGES
@<TRIPOS>ATOM
1	  AU	0.000	0.000	0.000	Au	1	AU1	0.000	
2	  AU	0.000	1.514	2.450	Au	2	AU2	0.000	
3	  AU	0.000	-1.514	2.450	Au	3	AU3	0.000	
4	  AU	0.000	1.514	-2.450	Au	4	AU4	0.000	
5	  AU	0.000	-1.514	-2.450	Au	5	AU5	0.000	
6	  AU	1.514	2.450	0.000	Au	6	AU6	0.000	
7	  AU	-1.514	2.450	0.000	Au	7	AU7	0.000	
8	  AU	1.514	-2.450	0.000	Au	8	AU8	0.000	
9	  AU	-1.514	-2.450	0.000	Au	9	AU9	0.000	
10	  AU	2.450	0.000	1.514	Au	10	AU10	0.000	
11	  AU	-2.450	0.000	1.514	Au	11	AU11	0.000	
12	  AU	2.450	0.000	-1.514	Au	12	AU12	0.000	
13	  AU	-2.450	0.000	-1.514	Au	13	AU13	0.000	
@<TRIPOS>BOND
@<TRIPOS>SUBSTRUCTURE
1	AU1	1	GROUP	1 ****	AU
2	AU2	2	GROUP	1 ****	AU
3	AU3	3	GROUP	1 ****	AU
4	AU4	4	GROUP	1 ****	AU
5	AU5	5	GROUP	1 ****	AU
6	AU6	6	GROUP	1 ****	AU
7	AU7	7	GROUP	1 ****	AU
8	AU8	8	GROUP	1 ****	AU
9	AU9	9	GROUP	1 ****	AU
10	AU10	10	GROUP	1 ****	AU
11	AU11	11	GROUP	1 ****	AU
12	AU12	12	GROUP	1 ****	AU
13	AU13	13	GROUP	1 ****	AU
