@<TRIPOS>MOLECULE
****
24 25 1 0 0
SMALL
USER_CHARGES


@<TRIPOS>ATOM
      1 O         -45.0718   -1.7006   -0.7888 O.2       1     ****    0.0000
      2 C         -44.1988   -1.0314   -0.2894 C.ar      1     ****    0.0000
      3 N         -43.1505   -1.6207    0.3934 N.ar      1     ****    0.0000
      4 C         -42.9104   -3.0466    0.1150 C.3       1     ****    0.0000
      5 C         -42.0305   -0.8606    0.4404 C.ar      1     ****    0.0000
      6 C         -42.0373    0.4654    0.2098 C.ar      1     ****    0.0000
      7 N         -40.8387    0.8109    0.4252 N.ar      1     ****    0.0000
      8 C         -40.3106    2.1751    0.3076 C.3       1     ****    0.0000
      9 C         -40.1351   -0.1832    0.7648 C.ar      1     ****    0.0000
     10 N         -40.8615   -1.2184    0.7888 N.ar      1     ****    0.0000
     11 N         -44.2469    0.3587   -0.3572 N.ar      1     ****    0.0000
     12 C         -45.5030    0.9913   -0.7731 C.3       1     ****    0.0000
     13 C         -43.1376    1.1678   -0.1592 C.ar      1     ****    0.0000
     14 O         -43.1627    2.3658   -0.3370 O.2       1     ****    0.0000
     15 H         -43.8124   -3.6619    0.3374 H         1     ****    0.0000
     16 H         -42.6225   -3.2018   -0.9507 H         1     ****    0.0000
     17 H         -42.1052   -3.4661    0.7600 H         1     ****    0.0000
     18 H         -40.8146    2.8540    1.0325 H         1     ****    0.0000
     19 H         -39.2195    2.2174    0.5252 H         1     ****    0.0000
     20 H         -40.4503    2.5622   -0.7274 H         1     ****    0.0000
     21 H         -39.0683   -0.1349    1.0086 H         1     ****    0.0000
     22 H         -46.3928    0.4009   -0.4595 H         1     ****    0.0000
     23 H         -45.6466    1.9872   -0.2980 H         1     ****    0.0000
     24 H         -45.5216    1.1126   -1.8802 H         1     ****    0.0000
@<TRIPOS>BOND
     1     1     2     2
     2     2     3     1
     3     2    11     1
     4     3     4     1
     5     3     5     1
     6     4    15     1
     7     4    16     1
     8     4    17     1
     9     5     6     2
    10     5    10     1
    11     6     7     1
    12     6    13     1
    13     7     8     1
    14     7     9     1
    15     8    18     1
    16     8    19     1
    17     8    20     1
    18     9    10     2
    19     9    21     1
    20    11    12     1
    21    11    13     1
    22    12    22     1
    23    12    23     1
    24    12    24     1
    25    13    14     2
