@<TRIPOS>MOLECULE
****
72 74 1 0 0
SMALL
USER_CHARGES


@<TRIPOS>ATOM
      1 C          -9.4741   -3.3090   -1.1420 C.3       1     ****    0.0000
      2 C          -9.6794   -1.7855   -1.0656 C.3       1     ****    0.0000
      3 C          -8.3513   -1.0018   -0.9598 C.3       1     ****    0.0000
      4 C          -8.5586    0.5313   -0.9011 C.3       1     ****    0.0000
      5 C          -7.4135    1.1189   -0.0560 C.3       1     ****    0.0000
      6 C          -6.4608   -0.0646    0.1484 C.3       1     ****    0.0000
      7 H          -5.8631   -0.1315   -0.7961 H         1     ****    0.0000
      8 C          -7.3935   -1.2962    0.2285 C.3       1     ****    0.0000
      9 C          -8.1635   -1.3290    1.5687 C.3       1     ****    0.0000
     10 C          -6.5363   -2.5764    0.0799 C.3       1     ****    0.0000
     11 C          -5.0390   -2.3644    0.3702 C.3       1     ****    0.0000
     12 C          -4.7947   -1.3805    1.5242 C.3       1     ****    0.0000
     13 C          -5.4495   -0.0357    1.2739 C.2       1     ****    0.0000
     14 C          -5.1532    1.0857    1.9592 C.2       1     ****    0.0000
     15 C          -4.3090    1.1626    3.0032 C.2       1     ****    0.0000
     16 C          -3.9193    2.2130    3.7629 C.2       1     ****    0.0000
     17 C          -3.2266    1.7929    5.0596 C.3       1     ****    0.0000
     18 C          -3.2800    2.8162    6.1845 C.3       1     ****    0.0000
     19 O          -2.4523    2.4024    7.2457 O.3       1     ****    0.0000
     20 C          -2.7952    4.1502    5.6497 C.3       1     ****    0.0000
     21 C          -3.7644    4.5898    4.5517 C.3       1     ****    0.0000
     22 C          -4.0498    3.5351    3.4891 C.2       1     ****    0.0000
     23 C          -4.3513    4.0484    2.2805 C.2       1     ****    0.0000
     24 C         -10.5767   -1.3110   -2.2350 C.3       1     ****    0.0000
     25 C          -9.9708   -1.4540   -3.6420 C.3       1     ****    0.0000
     26 C         -10.9557   -1.0077   -4.7366 C.3       1     ****    0.0000
     27 C         -10.3567   -1.0020   -6.1578 C.3       1     ****    0.0000
     28 C          -9.9342   -2.4053   -6.6238 C.3       1     ****    0.0000
     29 C         -11.3663   -0.4045   -7.1548 C.3       1     ****    0.0000
     30 H          -9.0466   -3.7189   -0.2015 H         1     ****    0.0000
     31 H         -10.4395   -3.8416   -1.2987 H         1     ****    0.0000
     32 H          -8.7931   -3.5932   -1.9742 H         1     ****    0.0000
     33 H         -10.2649   -1.5845   -0.1325 H         1     ****    0.0000
     34 H          -7.7659   -1.2161   -1.8883 H         1     ****    0.0000
     35 H          -8.5679    0.9706   -1.9259 H         1     ****    0.0000
     36 H          -9.5311    0.7868   -0.4193 H         1     ****    0.0000
     37 H          -7.8188    1.4723    0.9207 H         1     ****    0.0000
     38 H          -6.9182    1.9849   -0.5523 H         1     ****    0.0000
     39 H          -7.4806   -1.3592    2.4447 H         1     ****    0.0000
     40 H          -8.8247   -0.4469    1.7078 H         1     ****    0.0000
     41 H          -8.8144   -2.2270    1.6489 H         1     ****    0.0000
     42 H          -6.9186   -3.3668    0.7670 H         1     ****    0.0000
     43 H          -6.6247   -2.9974   -0.9483 H         1     ****    0.0000
     44 H          -4.5269   -1.9814   -0.5452 H         1     ****    0.0000
     45 H          -4.5558   -3.3456    0.5955 H         1     ****    0.0000
     46 H          -3.6929   -1.2573    1.6480 H         1     ****    0.0000
     47 H          -5.2025   -1.8170    2.4655 H         1     ****    0.0000
     48 H          -5.6974    1.9817    1.6437 H         1     ****    0.0000
     49 H          -3.9120    0.1893    3.3394 H         1     ****    0.0000
     50 H          -2.1605    1.5754    4.8080 H         1     ****    0.0000
     51 H          -3.6680    0.8505    5.4653 H         1     ****    0.0000
     52 H          -4.3133    2.9080    6.5930 H         1     ****    0.0000
     53 H          -2.5728    2.9947    7.9917 H         1     ****    0.0000
     54 H          -2.7566    4.9111    6.4651 H         1     ****    0.0000
     55 H          -1.7640    4.0473    5.2362 H         1     ****    0.0000
     56 H          -3.3502    5.5239    4.1017 H         1     ****    0.0000
     57 H          -4.7452    4.8617    5.0116 H         1     ****    0.0000
     58 H          -4.4617    3.4789    1.3535 H         1     ****    0.0000
     59 H          -4.4269    5.1364    2.1321 H         1     ****    0.0000
     60 H         -11.5349   -1.8834   -2.2040 H         1     ****    0.0000
     61 H         -10.8656   -0.2456   -2.0785 H         1     ****    0.0000
     62 H          -9.0462   -0.8374   -3.7244 H         1     ****    0.0000
     63 H          -9.6866   -2.5169   -3.8128 H         1     ****    0.0000
     64 H         -11.8562   -1.6657   -4.7178 H         1     ****    0.0000
     65 H         -11.3021    0.0259   -4.4948 H         1     ****    0.0000
     66 H          -9.4499   -0.3453   -6.1564 H         1     ****    0.0000
     67 H          -9.5620   -2.3843   -7.6735 H         1     ****    0.0000
     68 H          -9.1089   -2.8192   -6.0029 H         1     ****    0.0000
     69 H         -10.7897   -3.1168   -6.5809 H         1     ****    0.0000
     70 H         -10.9385   -0.3524   -8.1820 H         1     ****    0.0000
     71 H         -11.6576    0.6313   -6.8667 H         1     ****    0.0000
     72 H         -12.2939   -1.0190   -7.2033 H         1     ****    0.0000
@<TRIPOS>BOND
     1     1     2     1
     2     1    30     1
     3     1    31     1
     4     1    32     1
     5     2     3     1
     6     2    24     1
     7     2    33     1
     8     3     4     1
     9     3     8     1
    10     3    34     1
    11     4     5     1
    12     4    35     1
    13     4    36     1
    14     5     6     1
    15     5    37     1
    16     5    38     1
    17     6     7     1
    18     6     8     1
    19     6    13     1
    20     8     9     1
    21     8    10     1
    22     9    39     1
    23     9    40     1
    24     9    41     1
    25    10    11     1
    26    10    42     1
    27    10    43     1
    28    11    12     1
    29    11    44     1
    30    11    45     1
    31    12    13     1
    32    12    46     1
    33    12    47     1
    34    13    14     2
    35    14    15     1
    36    14    48     1
    37    15    16     2
    38    15    49     1
    39    16    17     1
    40    16    22     1
    41    17    18     1
    42    17    50     1
    43    17    51     1
    44    18    19     1
    45    18    20     1
    46    18    52     1
    47    19    53     1
    48    20    21     1
    49    20    54     1
    50    20    55     1
    51    21    22     1
    52    21    56     1
    53    21    57     1
    54    22    23     2
    55    23    58     1
    56    23    59     1
    57    24    25     1
    58    24    60     1
    59    24    61     1
    60    25    26     1
    61    25    62     1
    62    25    63     1
    63    26    27     1
    64    26    64     1
    65    26    65     1
    66    27    28     1
    67    27    29     1
    68    27    66     1
    69    28    67     1
    70    28    68     1
    71    28    69     1
    72    29    70     1
    73    29    71     1
    74    29    72     1
