@<TRIPOS>MOLECULE
****
47 48 1 0 0
SMALL
USER_CHARGES


@<TRIPOS>ATOM
      1 C         -37.1863   -0.9859    1.8198 C.3       1     ****    0.0000
      2 C         -37.3965   -2.4311    2.2972 C.2       1     ****    0.0000
      3 C         -38.4570   -3.1706    1.8645 C.2       1     ****    0.0000
      4 C         -39.4040   -2.7569    1.0022 C.2       1     ****    0.0000
      5 C         -40.4642   -3.4604    0.5483 C.ar      1     ****    0.0000
      6 C         -41.3200   -2.8853   -0.3194 C.ar      1     ****    0.0000
      7 C         -42.4153   -3.4758   -0.8428 C.ar      1     ****    0.0000
      8 O         -43.1576   -2.7181   -1.7223 O.3       1     ****    0.0000
      9 C         -44.2042   -3.2902   -2.4678 C.3       1     ****    0.0000
     10 C         -42.6577   -4.7549   -0.4750 C.ar      1     ****    0.0000
     11 O         -43.7165   -5.4820   -0.9237 O.3       1     ****    0.0000
     12 C         -41.8182   -5.3472    0.3913 C.ar      1     ****    0.0000
     13 C         -40.7451   -4.7266    0.8990 C.ar      1     ****    0.0000
     14 O         -36.5948   -2.8898    3.0861 O.2       1     ****    0.0000
     15 C         -36.7388   -0.8543    0.3608 C.2       1     ****    0.0000
     16 C         -36.5239    0.3674   -0.2036 C.2       1     ****    0.0000
     17 C         -36.6663    1.5540    0.4154 C.2       1     ****    0.0000
     18 C         -36.4641    2.7818   -0.1108 C.ar      1     ****    0.0000
     19 C         -36.6553    3.8730    0.6565 C.ar      1     ****    0.0000
     20 C         -36.4911    5.1506    0.2523 C.ar      1     ****    0.0000
     21 O         -36.7336    6.1253    1.1957 O.3       1     ****    0.0000
     22 C         -36.5016    7.4836    0.9140 C.3       1     ****    0.0000
     23 C         -36.0934    5.3435   -1.0262 C.ar      1     ****    0.0000
     24 O         -35.8829    6.5704   -1.5754 O.3       1     ****    0.0000
     25 C         -35.8980    4.2692   -1.8098 C.ar      1     ****    0.0000
     26 C         -36.0759    3.0144   -1.3759 C.ar      1     ****    0.0000
     27 O         -36.5877   -1.8758   -0.2763 O.2       1     ****    0.0000
     28 H         -38.1229   -0.4118    2.0034 H         1     ****    0.0000
     29 H         -36.3935   -0.5247    2.4558 H         1     ****    0.0000
     30 H         -38.4997   -4.1891    2.2832 H         1     ****    0.0000
     31 H         -39.3062   -1.7279    0.6185 H         1     ****    0.0000
     32 H         -41.1349   -1.8453   -0.6449 H         1     ****    0.0000
     33 H         -44.5920   -2.5073   -3.1578 H         1     ****    0.0000
     34 H         -43.8244   -4.1313   -3.0888 H         1     ****    0.0000
     35 H         -45.0418   -3.5880   -1.7998 H         1     ****    0.0000
     36 H         -43.7026   -6.3646   -0.5204 H         1     ****    0.0000
     37 H         -42.0198   -6.3888    0.6973 H         1     ****    0.0000
     38 H         -40.1215   -5.3022    1.5998 H         1     ****    0.0000
     39 H         -36.2086    0.3290   -1.2589 H         1     ****    0.0000
     40 H         -36.9838    1.5245    1.4710 H         1     ****    0.0000
     41 H         -36.9740    3.7403    1.7065 H         1     ****    0.0000
     42 H         -36.7298    8.0616    1.8377 H         1     ****    0.0000
     43 H         -35.4303    7.6522    0.6669 H         1     ****    0.0000
     44 H         -37.1922    7.8402    0.1186 H         1     ****    0.0000
     45 H         -35.6134    6.4733   -2.5027 H         1     ****    0.0000
     46 H         -35.5773    4.4262   -2.8546 H         1     ****    0.0000
     47 H         -35.8883    2.2062   -2.0990 H         1     ****    0.0000
@<TRIPOS>BOND
     1     1     2     1
     2     1    15     1
     3     1    28     1
     4     1    29     1
     5     2     3     1
     6     2    14     2
     7     3     4     2
     8     3    30     1
     9     4     5     1
    10     4    31     1
    11     5     6     1
    12     5    13     2
    13     6     7     2
    14     6    32     1
    15     7     8     1
    16     7    10     1
    17     8     9     1
    18     9    33     1
    19     9    34     1
    20     9    35     1
    21    10    11     1
    22    10    12     2
    23    11    36     1
    24    12    13     1
    25    12    37     1
    26    13    38     1
    27    15    16     1
    28    15    27     2
    29    16    17     2
    30    16    39     1
    31    17    18     1
    32    17    40     1
    33    18    19     1
    34    18    26     2
    35    19    20     2
    36    19    41     1
    37    20    21     1
    38    20    23     1
    39    21    22     1
    40    22    42     1
    41    22    43     1
    42    22    44     1
    43    23    24     1
    44    23    25     2
    45    24    45     1
    46    25    26     1
    47    25    46     1
    48    26    47     1
