@<TRIPOS>MOLECULE
****
51 53 1 0 0
SMALL
USER_CHARGES


@<TRIPOS>ATOM
      1 C         -64.9021   -2.0810   -1.0326 C.3       1     ****    0.0000
      2 C         -66.1323   -1.6638   -0.2919 C.ar      1     ****    0.0000
      3 C         -67.0564   -0.7533   -0.6208 C.ar      1     ****    0.0000
      4 C         -67.9278   -0.7737    0.3984 C.ar      1     ****    0.0000
      5 C         -69.1650    0.0714    0.5156 C.3       1     ****    0.0000
      6 C         -70.4273   -0.7601    0.2434 C.3       1     ****    0.0000
      7 C         -71.7063    0.0852    0.3569 C.3       1     ****    0.0000
      8 C         -72.9708   -0.7457    0.0842 C.3       1     ****    0.0000
      9 C         -74.2501    0.0992    0.1995 C.3       1     ****    0.0000
     10 C         -75.5145   -0.7312   -0.0749 C.3       1     ****    0.0000
     11 C         -76.7856    0.1119    0.0425 C.3       1     ****    0.0000
     12 O         -77.8951   -0.7070   -0.2214 O.3       1     ****    0.0000
     13 C         -79.1550   -0.1599   -0.1709 C.ar      1     ****    0.0000
     14 C         -80.2161   -0.9497   -0.4206 C.ar      1     ****    0.0000
     15 C         -81.4800   -0.4999   -0.3928 C.ar      1     ****    0.0000
     16 C         -81.7608    0.7860   -0.1093 C.ar      1     ****    0.0000
     17 C         -80.7062    1.5846    0.1430 C.ar      1     ****    0.0000
     18 C         -79.4446    1.1248    0.1126 C.ar      1     ****    0.0000
     19 C         -83.0304    1.2458   -0.0792 C.2       1     ****    0.0000
     20 N         -83.3191    2.4511    0.1832 N.2       1     ****    0.0000
     21 C         -84.7816    2.6405    0.1138 C.3       1     ****    0.0000
     22 C         -85.2259    1.2041   -0.1480 C.3       1     ****    0.0000
     23 O         -83.9982    0.5173   -0.3148 O.3       1     ****    0.0000
     24 O         -67.5824   -1.5931    1.2490 O.2       1     ****    0.0000
     25 N         -66.4614   -2.1495    0.8274 N.ar      1     ****    0.0000
     26 H         -64.6644   -1.3617   -1.8484 H         1     ****    0.0000
     27 H         -64.0250   -2.1263   -0.3480 H         1     ****    0.0000
     28 H         -65.0507   -3.0870   -1.4865 H         1     ****    0.0000
     29 H         -67.0913   -0.1321   -1.5228 H         1     ****    0.0000
     30 H         -69.2018    0.5100    1.5401 H         1     ****    0.0000
     31 H         -69.1085    0.9193   -0.2064 H         1     ****    0.0000
     32 H         -70.3639   -1.2016   -0.7800 H         1     ****    0.0000
     33 H         -70.4781   -1.6059    0.9700 H         1     ****    0.0000
     34 H         -71.7671    0.5268    1.3799 H         1     ****    0.0000
     35 H         -71.6560    0.9309   -0.3695 H         1     ****    0.0000
     36 H         -72.9098   -1.1862   -0.9393 H         1     ****    0.0000
     37 H         -73.0205   -1.5921    0.8098 H         1     ****    0.0000
     38 H         -74.3117    0.5388    1.2234 H         1     ****    0.0000
     39 H         -74.2001    0.9465   -0.5250 H         1     ****    0.0000
     40 H         -75.4546   -1.1702   -1.0995 H         1     ****    0.0000
     41 H         -75.5651   -1.5799    0.6485 H         1     ****    0.0000
     42 H         -76.8647    0.5191    1.0774 H         1     ****    0.0000
     43 H         -76.7509    0.9389   -0.7044 H         1     ****    0.0000
     44 H         -80.0368   -2.0129   -0.6580 H         1     ****    0.0000
     45 H         -82.2787   -1.2287   -0.6113 H         1     ****    0.0000
     46 H         -80.8447    2.6523    0.3849 H         1     ****    0.0000
     47 H         -78.6439    1.8492    0.3317 H         1     ****    0.0000
     48 H         -85.1707    3.0457    1.0756 H         1     ****    0.0000
     49 H         -85.0366    3.3289   -0.7244 H         1     ****    0.0000
     50 H         -85.8536    1.1117   -1.0642 H         1     ****    0.0000
     51 H         -85.7773    0.7754    0.7214 H         1     ****    0.0000
@<TRIPOS>BOND
     1     1     2     1
     2     1    26     1
     3     1    27     1
     4     1    28     1
     5     2     3     1
     6     2    25     2
     7     3     4     2
     8     3    29     1
     9     4     5     1
    10     4    24     1
    11     5     6     1
    12     5    30     1
    13     5    31     1
    14     6     7     1
    15     6    32     1
    16     6    33     1
    17     7     8     1
    18     7    34     1
    19     7    35     1
    20     8     9     1
    21     8    36     1
    22     8    37     1
    23     9    10     1
    24     9    38     1
    25     9    39     1
    26    10    11     1
    27    10    40     1
    28    10    41     1
    29    11    12     1
    30    11    42     1
    31    11    43     1
    32    12    13     1
    33    13    14     2
    34    13    18     1
    35    14    15     1
    36    14    44     1
    37    15    16     2
    38    15    45     1
    39    16    17     1
    40    16    19     1
    41    17    18     2
    42    17    46     1
    43    18    47     1
    44    19    20     2
    45    19    23     1
    46    20    21     1
    47    21    22     1
    48    21    48     1
    49    21    49     1
    50    22    23     1
    51    22    50     1
    52    22    51     1
    53    24    25     1
