@<TRIPOS>MOLECULE
****
51 54 1 0 0
SMALL
USER_CHARGES


@<TRIPOS>ATOM
      1 C         -80.9201    1.8912    0.2119 C.3       1     ****    0.0000
      2 C         -81.7174    1.1573    1.2834 C.3       1     ****    0.0000
      3 C         -83.1357    0.8337    0.8279 C.3       1     ****    0.0000
      4 C         -83.7432    2.0375    0.1399 C.ar      1     ****    0.0000
      5 C         -85.0797    2.0759   -0.0368 C.ar      1     ****    0.0000
      6 O         -85.8849    1.0637    0.3882 O.3       1     ****    0.0000
      7 C         -85.6230    3.1345   -0.6579 C.ar      1     ****    0.0000
      8 C         -84.8783    4.1540   -1.1081 C.ar      1     ****    0.0000
      9 O         -85.4353    5.2197   -1.7433 O.3       1     ****    0.0000
     10 C         -83.5536    4.0775   -0.9136 C.ar      1     ****    0.0000
     11 C         -82.9546    3.0471   -0.2880 C.ar      1     ****    0.0000
     12 O         -81.5878    3.0729   -0.1665 O.3       1     ****    0.0000
     13 C         -80.4823    1.0555   -0.9806 C.ar      1     ****    0.0000
     14 C         -79.2613    0.4913   -0.9999 C.ar      1     ****    0.0000
     15 C         -78.8507   -0.2926   -2.0092 C.ar      1     ****    0.0000
     16 O         -77.6237   -0.8789   -1.9998 O.3       1     ****    0.0000
     17 C         -79.6802   -0.5112   -3.0435 C.ar      1     ****    0.0000
     18 O         -79.2930   -1.3079   -4.0742 O.3       1     ****    0.0000
     19 C         -80.9003    0.0516   -3.0626 C.ar      1     ****    0.0000
     20 O         -81.7383   -0.1828   -4.1068 O.3       1     ****    0.0000
     21 C         -81.2850    0.8213   -2.0322 C.ar      1     ****    0.0000
     22 C         -80.6803   -1.0660    1.2401 C.2       1     ****    0.0000
     23 C         -79.6923   -1.8719    1.7397 C.ar      1     ****    0.0000
     24 C         -79.0715   -1.5529    2.8898 C.ar      1     ****    0.0000
     25 C         -78.0929   -2.3176    3.4020 C.ar      1     ****    0.0000
     26 O         -77.4683   -1.9878    4.5648 O.3       1     ****    0.0000
     27 C         -77.7195   -3.4310    2.7488 C.ar      1     ****    0.0000
     28 O         -76.7278   -4.2165    3.2459 O.3       1     ****    0.0000
     29 C         -78.3226   -3.7746    1.5985 C.ar      1     ****    0.0000
     30 O         -77.9327   -4.8990    0.9411 O.3       1     ****    0.0000
     31 C         -79.2989   -2.9937    1.1082 C.ar      1     ****    0.0000
     32 O         -81.2140   -1.3615    0.1902 O.2       1     ****    0.0000
     33 O         -81.0205    0.1000    1.8833 O.3       1     ****    0.0000
     34 H         -79.9787    2.2558    0.6978 H         1     ****    0.0000
     35 H         -81.8419    1.8973    2.1200 H         1     ****    0.0000
     36 H         -83.7388    0.5328    1.7166 H         1     ****    0.0000
     37 H         -83.1960    0.0035    0.0932 H         1     ****    0.0000
     38 H         -86.8047    1.2634    0.1504 H         1     ****    0.0000
     39 H         -86.7150    3.1671   -0.8090 H         1     ****    0.0000
     40 H         -84.7342    5.8437   -1.9918 H         1     ****    0.0000
     41 H         -82.9250    4.9038   -1.2873 H         1     ****    0.0000
     42 H         -78.5710    0.6458   -0.1539 H         1     ****    0.0000
     43 H         -77.5364   -1.4112   -2.8080 H         1     ****    0.0000
     44 H         -80.0244   -1.3731   -4.7096 H         1     ****    0.0000
     45 H         -82.6038    0.2162   -3.9252 H         1     ****    0.0000
     46 H         -82.2969    1.2516   -2.0656 H         1     ****    0.0000
     47 H         -79.3415   -0.6486    3.4597 H         1     ****    0.0000
     48 H         -76.7912   -2.6597    4.7503 H         1     ****    0.0000
     49 H         -76.5838   -4.9620    2.6407 H         1     ****    0.0000
     50 H         -78.4235   -4.9808    0.1083 H         1     ****    0.0000
     51 H         -79.7529   -3.3204    0.1584 H         1     ****    0.0000
@<TRIPOS>BOND
     1     1     2     1
     2     1    12     1
     3     1    13     1
     4     1    34     1
     5     2     3     1
     6     2    33     1
     7     2    35     1
     8     3     4     1
     9     3    36     1
    10     3    37     1
    11     4     5     1
    12     4    11     2
    13     5     6     1
    14     5     7     2
    15     6    38     1
    16     7     8     1
    17     7    39     1
    18     8     9     1
    19     8    10     2
    20     9    40     1
    21    10    11     1
    22    10    41     1
    23    11    12     1
    24    13    14     1
    25    13    21     2
    26    14    15     2
    27    14    42     1
    28    15    16     1
    29    15    17     1
    30    16    43     1
    31    17    18     1
    32    17    19     2
    33    18    44     1
    34    19    20     1
    35    19    21     1
    36    20    45     1
    37    21    46     1
    38    22    23     1
    39    22    32     2
    40    22    33     1
    41    23    24     1
    42    23    31     2
    43    24    25     2
    44    24    47     1
    45    25    26     1
    46    25    27     1
    47    26    48     1
    48    27    28     1
    49    27    29     2
    50    28    49     1
    51    29    30     1
    52    29    31     1
    53    30    50     1
    54    31    51     1
