@<TRIPOS>MOLECULE
****
44 47 1 0 0
SMALL
USER_CHARGES


@<TRIPOS>ATOM
      1 C         -67.1548   -2.0535   -1.3660 C.ar      1     ****    0.0000
      2 O         -68.2804   -2.7895   -1.5688 O.3       1     ****    0.0000
      3 C         -67.1618   -0.7150   -1.4473 C.ar      1     ****    0.0000
      4 C         -66.0412   -0.0075   -1.2445 C.ar      1     ****    0.0000
      5 C         -65.9812   -2.6407   -1.0856 C.ar      1     ****    0.0000
      6 C         -64.8468   -1.9457   -0.8815 C.ar      1     ****    0.0000
      7 C         -63.5873   -2.7299   -0.5808 C.3       1     ****    0.0000
      8 C         -62.3061   -1.8995   -0.6939 C.3       1     ****    0.0000
      9 C         -62.5268   -0.5681    0.0304 C.3       1     ****    0.0000
     10 C         -61.2499    0.2720    0.1280 C.3       1     ****    0.0000
     11 C         -59.9936   -0.3282    0.7703 C.3       1     ****    0.0000
     12 C         -59.1393    0.9100    1.1203 C.3       1     ****    0.0000
     13 C         -60.0354    2.1303    0.8660 C.3       1     ****    0.0000
     14 O         -59.8121    3.1439    1.8130 O.3       1     ****    0.0000
     15 C         -61.4690    1.5831    0.9103 C.3       1     ****    0.0000
     16 C         -61.9177    1.3960    2.3775 C.3       1     ****    0.0000
     17 C         -62.5131    2.4069    0.1402 C.3       1     ****    0.0000
     18 C         -63.8218    1.6167   -0.0675 C.3       1     ****    0.0000
     19 C         -63.6079    0.2352   -0.7286 C.3       1     ****    0.0000
     20 C         -64.8679   -0.5966   -0.9452 C.ar      1     ****    0.0000
     21 H         -63.2223    0.4378   -1.7604 H         1     ****    0.0000
     22 H         -62.8845   -0.8027    1.0603 H         1     ****    0.0000
     23 H         -60.9588    0.5265   -0.9239 H         1     ****    0.0000
     24 H         -68.0622   -3.7313   -1.4794 H         1     ****    0.0000
     25 H         -68.1040   -0.1946   -1.6887 H         1     ****    0.0000
     26 H         -66.1180    1.0857   -1.3415 H         1     ****    0.0000
     27 H         -65.9568   -3.7417   -1.0225 H         1     ****    0.0000
     28 H         -63.6812   -3.1247    0.4596 H         1     ****    0.0000
     29 H         -63.5061   -3.6091   -1.2635 H         1     ****    0.0000
     30 H         -61.4564   -2.4667   -0.2473 H         1     ****    0.0000
     31 H         -62.0536   -1.7137   -1.7642 H         1     ****    0.0000
     32 H         -59.4590   -1.0252    0.0853 H         1     ****    0.0000
     33 H         -60.2701   -0.8978    1.6874 H         1     ****    0.0000
     34 H         -58.8107    0.8608    2.1845 H         1     ****    0.0000
     35 H         -58.2216    0.9638    0.4894 H         1     ****    0.0000
     36 H         -59.8151    2.5670   -0.1358 H         1     ****    0.0000
     37 H         -60.3959    3.8837    1.6278 H         1     ****    0.0000
     38 H         -61.1756    0.8373    2.9875 H         1     ****    0.0000
     39 H         -62.0655    2.3815    2.8739 H         1     ****    0.0000
     40 H         -62.8812    0.8559    2.4817 H         1     ****    0.0000
     41 H         -62.7122    3.3634    0.6773 H         1     ****    0.0000
     42 H         -62.1078    2.6859   -0.8613 H         1     ****    0.0000
     43 H         -64.4805    2.2633   -0.6936 H         1     ****    0.0000
     44 H         -64.3485    1.4768    0.9041 H         1     ****    0.0000
@<TRIPOS>BOND
     1     1     2     1
     2     1     3     1
     3     1     5     2
     4     2    24     1
     5     3     4     2
     6     3    25     1
     7     4    20     1
     8     4    26     1
     9     5     6     1
    10     5    27     1
    11     6     7     1
    12     6    20     2
    13     7     8     1
    14     7    28     1
    15     7    29     1
    16     8     9     1
    17     8    30     1
    18     8    31     1
    19     9    10     1
    20     9    19     1
    21     9    22     1
    22    10    11     1
    23    10    15     1
    24    10    23     1
    25    11    12     1
    26    11    32     1
    27    11    33     1
    28    12    13     1
    29    12    34     1
    30    12    35     1
    31    13    14     1
    32    13    15     1
    33    13    36     1
    34    14    37     1
    35    15    16     1
    36    15    17     1
    37    16    38     1
    38    16    39     1
    39    16    40     1
    40    17    18     1
    41    17    41     1
    42    17    42     1
    43    18    19     1
    44    18    43     1
    45    18    44     1
    46    19    20     1
    47    19    21     1
