@<TRIPOS>MOLECULE
****
135 137 1 0 0
SMALL
USER_CHARGES


@<TRIPOS>ATOM
      1 C          -3.0398    7.7210    5.5462 C.3       1     ****    0.0000
      2 C          -3.5453    6.6844    4.5328 C.3       1     ****    0.0000
      3 C          -3.6896    7.2406    3.0996 C.3       1     ****    0.0000
      4 C          -4.8707    8.2254    3.0029 C.3       1     ****    0.0000
      5 C          -3.8565    6.1093    2.0563 C.3       1     ****    0.0000
      6 C          -2.6069    5.2500    1.8320 C.2       1     ****    0.0000
      7 O          -1.5346    5.5045    2.3231 O.2       1     ****    0.0000
      8 N          -2.7961    4.1524    1.0332 N.am      1     ****    0.0000
      9 C          -1.7473    3.1481    0.8068 C.3       1     ****    0.0000
     10 C          -2.0400    2.3770   -0.4780 C.2       1     ****    0.0000
     11 O          -3.0526    2.5384   -1.1126 O.2       1     ****    0.0000
     12 N          -1.0605    1.5009   -0.8542 N.am      1     ****    0.0000
     13 C          -1.0447    0.8384   -2.1678 C.3       1     ****    0.0000
     14 C          -1.9719   -0.3742   -2.1774 C.2       1     ****    0.0000
     15 O          -1.5555   -1.4969   -2.0633 O.2       1     ****    0.0000
     16 N          -3.2984   -0.0675   -2.3238 N.am      1     ****    0.0000
     17 C          -4.4034   -1.0330   -2.1589 C.3       1     ****    0.0000
     18 C          -5.6935   -0.4809   -2.8029 C.3       1     ****    0.0000
     19 S          -7.0974   -1.5994   -2.4521 S.3       1     ****    0.0000
     20 S          -8.7352   -0.4216   -2.6538 S.3       1     ****    0.0000
     21 C          -9.0883    0.2480   -0.9863 C.3       1     ****    0.0000
     22 C          -7.8579    0.9577   -0.4014 C.3       1     ****    0.0000
     23 C          -8.1029    2.0417    0.6284 C.2       1     ****    0.0000
     24 O          -9.1891    2.3768    1.0259 O.2       1     ****    0.0000
     25 N          -6.9345    2.5888    1.0723 N.am      1     ****    0.0000
     26 C          -6.8312    3.6810    2.0422 C.3       1     ****    0.0000
     27 C          -5.7606    4.6126    1.4811 C.2       1     ****    0.0000
     28 O          -5.5631    4.7061    0.2946 O.2       1     ****    0.0000
     29 N          -5.0171    5.2783    2.4111 N.am      1     ****    0.0000
     30 C          -6.4950    3.1053    3.4304 C.3       1     ****    0.0000
     31 C          -7.3461    1.8859    3.7150 C.ar      1     ****    0.0000
     32 C          -8.5645    2.0052    4.2687 C.ar      1     ****    0.0000
     33 C          -9.3247    0.9228    4.4941 C.ar      1     ****    0.0000
     34 C          -8.8992   -0.3111    4.1737 C.ar      1     ****    0.0000
     35 C          -7.6803   -0.4254    3.6199 C.ar      1     ****    0.0000
     36 C          -6.9159    0.6530    3.3938 C.ar      1     ****    0.0000
     37 O          -9.6678   -1.4102    4.4006 O.3       1     ****    0.0000
     38 N          -6.9456   -0.0235    0.2147 N.3       1     ****    0.0000
     39 C          -4.0899   -2.5048   -2.4926 C.2       1     ****    0.0000
     40 O          -4.2607   -3.3562   -1.6550 O.2       1     ****    0.0000
     41 N          -3.5663   -2.7985   -3.7278 N.am      1     ****    0.0000
     42 C          -3.6391   -1.9450   -4.9073 C.3       1     ****    0.0000
     43 C          -3.0836   -2.7621   -6.0830 C.3       1     ****    0.0000
     44 C          -3.1904   -4.2070   -5.5776 C.3       1     ****    0.0000
     45 C          -2.9562   -4.0918   -4.0563 C.3       1     ****    0.0000
     46 C          -1.4505   -4.1001   -3.7402 C.2       1     ****    0.0000
     47 O          -0.6330   -3.5803   -4.4551 O.2       1     ****    0.0000
     48 N          -0.9879   -4.7138   -2.6081 N.am      1     ****    0.0000
     49 C          -1.7072   -5.4648   -1.5708 C.3       1     ****    0.0000
     50 C          -1.2760   -6.9463   -1.5917 C.3       1     ****    0.0000
     51 C           0.2039   -7.2374   -1.9243 C.3       1     ****    0.0000
     52 C           1.1983   -6.6119   -0.9341 C.3       1     ****    0.0000
     53 C           0.4376   -8.7586   -1.9947 C.3       1     ****    0.0000
     54 C          -1.5120   -4.7491   -0.2323 C.2       1     ****    0.0000
     55 O          -0.9844   -5.2275    0.7394 O.2       1     ****    0.0000
     56 N          -1.9685   -3.4657   -0.2375 N.am      1     ****    0.0000
     57 C          -1.8536   -2.5497    0.8964 C.3       1     ****    0.0000
     58 C          -0.5042   -1.8546    0.8486 C.2       1     ****    0.0000
     59 O          -0.3637   -0.6595    0.8551 O.2       1     ****    0.0000
     60 N           0.5605   -2.6965    0.7918 N.am      1     ****    0.0000
     61 C           0.4153    0.5186   -2.5435 C.3       1     ****    0.0000
     62 C           0.5529    0.0112   -3.9697 C.2       1     ****    0.0000
     63 O           0.8607    0.7030   -4.9051 O.2       1     ****    0.0000
     64 N           0.2773   -1.3061   -4.1301 N.am      1     ****    0.0000
     65 C          -1.6199    2.2180    2.0237 C.3       1     ****    0.0000
     66 C          -2.8354    1.2941    2.1876 C.3       1     ****    0.0000
     67 C          -2.7510    0.4582    3.4514 C.2       1     ****    0.0000
     68 O          -3.5743    0.4711    4.3286 O.2       1     ****    0.0000
     69 N          -1.6556   -0.3425    3.5316 N.am      1     ****    0.0000
     70 H          -2.8902    7.2560    6.5480 H         1     ****    0.0000
     71 H          -2.0635    8.1522    5.2274 H         1     ****    0.0000
     72 H          -3.7607    8.5579    5.6799 H         1     ****    0.0000
     73 H          -4.5224    6.2769    4.8837 H         1     ****    0.0000
     74 H          -2.8295    5.8290    4.5375 H         1     ****    0.0000
     75 H          -2.7621    7.8121    2.8435 H         1     ****    0.0000
     76 H          -4.9818    8.6259    1.9695 H         1     ****    0.0000
     77 H          -4.7332    9.1049    3.6703 H         1     ****    0.0000
     78 H          -5.8318    7.7363    3.2800 H         1     ****    0.0000
     79 H          -4.0304    6.6052    1.0699 H         1     ****    0.0000
     80 H          -3.6873    4.0014    0.5589 H         1     ****    0.0000
     81 H          -0.7787    3.6729    0.6203 H         1     ****    0.0000
     82 H          -0.3546    1.2259   -0.1676 H         1     ****    0.0000
     83 H          -1.4197    1.5494   -2.9449 H         1     ****    0.0000
     84 H          -3.5386    0.9246   -2.3741 H         1     ****    0.0000
     85 H          -4.5881   -1.0258   -1.0528 H         1     ****    0.0000
     86 H          -5.8640    0.5379   -2.3909 H         1     ****    0.0000
     87 H          -5.5807   -0.3190   -3.8945 H         1     ****    0.0000
     88 H          -9.9253    0.9764   -1.0989 H         1     ****    0.0000
     89 H          -9.4408   -0.5483   -0.2911 H         1     ****    0.0000
     90 H          -7.3317    1.5063   -1.2184 H         1     ****    0.0000
     91 H          -6.0654    2.2151    0.6898 H         1     ****    0.0000
     92 H          -7.7776    4.2692    2.0837 H         1     ****    0.0000
     93 H          -5.2212    5.1249    3.3980 H         1     ****    0.0000
     94 H          -5.4203    2.8166    3.4799 H         1     ****    0.0000
     95 H          -6.6456    3.8761    4.2215 H         1     ****    0.0000
     96 H          -8.9512    3.0035    4.5323 H         1     ****    0.0000
     97 H         -10.3228    1.0465    4.9469 H         1     ****    0.0000
     98 H          -7.3040   -1.4242    3.3418 H         1     ****    0.0000
     99 H          -5.9275    0.5185    2.9253 H         1     ****    0.0000
    100 H          -9.1734   -2.2020    4.1332 H         1     ****    0.0000
    101 H          -7.3009   -0.3144    1.1435 H         1     ****    0.0000
    102 H          -6.9178   -0.8972   -0.3361 H         1     ****    0.0000
    103 H          -4.7097   -1.7409   -5.1373 H         1     ****    0.0000
    104 H          -3.0850   -0.9896   -4.7735 H         1     ****    0.0000
    105 H          -2.0266   -2.4793   -6.2890 H         1     ****    0.0000
    106 H          -3.6492   -2.6023   -7.0296 H         1     ****    0.0000
    107 H          -4.2283   -4.5754   -5.7670 H         1     ****    0.0000
    108 H          -2.4840   -4.9021   -6.0846 H         1     ****    0.0000
    109 H          -3.4831   -4.9503   -3.5875 H         1     ****    0.0000
    110 H           0.0246   -4.6342   -2.5045 H         1     ****    0.0000
    111 H          -2.8094   -5.4506   -1.7146 H         1     ****    0.0000
    112 H          -1.5564   -7.4400   -0.6325 H         1     ****    0.0000
    113 H          -1.8854   -7.4520   -2.3818 H         1     ****    0.0000
    114 H           0.4269   -6.8241   -2.9409 H         1     ****    0.0000
    115 H           2.2487   -6.8526   -1.2160 H         1     ****    0.0000
    116 H           1.1224   -5.5020   -0.9149 H         1     ****    0.0000
    117 H           1.0341   -6.9966    0.0974 H         1     ****    0.0000
    118 H           1.4869   -8.9947   -2.2846 H         1     ****    0.0000
    119 H          -0.2275   -9.2388   -2.7482 H         1     ****    0.0000
    120 H           0.2410   -9.2408   -1.0102 H         1     ****    0.0000
    121 H          -2.3574   -3.1024   -1.1049 H         1     ****    0.0000
    122 H          -2.6682   -1.7945    0.8114 H         1     ****    0.0000
    123 H          -1.9838   -3.0719    1.8704 H         1     ****    0.0000
    124 H           1.4867   -2.2969    0.7475 H         1     ****    0.0000
    125 H           0.4239   -3.6996    0.8056 H         1     ****    0.0000
    126 H           0.8580   -0.2191   -1.8351 H         1     ****    0.0000
    127 H           1.0269    1.4478   -2.4500 H         1     ****    0.0000
    128 H           0.3160   -1.7375   -5.0415 H         1     ****    0.0000
    129 H          -0.0162   -1.8955   -3.3631 H         1     ****    0.0000
    130 H          -0.6846    1.6203    1.9331 H         1     ****    0.0000
    131 H          -1.5004    2.8293    2.9494 H         1     ****    0.0000
    132 H          -3.7658    1.9056    2.2154 H         1     ****    0.0000
    133 H          -2.9362    0.6011    1.3213 H         1     ****    0.0000
    134 H          -1.5510   -0.9212    4.3525 H         1     ****    0.0000
    135 H          -0.9674   -0.3552    2.7903 H         1     ****    0.0000
@<TRIPOS>BOND
     1     1     2     1
     2     1    70     1
     3     1    71     1
     4     1    72     1
     5     2     3     1
     6     2    73     1
     7     2    74     1
     8     3     4     1
     9     3     5     1
    10     3    75     1
    11     4    76     1
    12     4    77     1
    13     4    78     1
    14     5     6     1
    15     5    29     1
    16     5    79     1
    17     6     7     2
    18     6     8     1
    19     8     9     1
    20     8    80     1
    21     9    10     1
    22     9    65     1
    23     9    81     1
    24    10    11     2
    25    10    12     1
    26    12    13     1
    27    12    82     1
    28    13    14     1
    29    13    61     1
    30    13    83     1
    31    14    15     2
    32    14    16     1
    33    16    17     1
    34    16    84     1
    35    17    18     1
    36    17    39     1
    37    17    85     1
    38    18    19     1
    39    18    86     1
    40    18    87     1
    41    19    20     1
    42    20    21     1
    43    21    22     1
    44    21    88     1
    45    21    89     1
    46    22    23     1
    47    22    38     1
    48    22    90     1
    49    23    24     2
    50    23    25     1
    51    25    26     1
    52    25    91     1
    53    26    27     1
    54    26    30     1
    55    26    92     1
    56    27    28     2
    57    27    29     1
    58    29    93     1
    59    30    31     1
    60    30    94     1
    61    30    95     1
    62    31    32     2
    63    31    36     1
    64    32    33     1
    65    32    96     1
    66    33    34     2
    67    33    97     1
    68    34    35     1
    69    34    37     1
    70    35    36     2
    71    35    98     1
    72    36    99     1
    73    37   100     1
    74    38   101     1
    75    38   102     1
    76    39    40     2
    77    39    41     1
    78    41    42     1
    79    41    45     1
    80    42    43     1
    81    42   103     1
    82    42   104     1
    83    43    44     1
    84    43   105     1
    85    43   106     1
    86    44    45     1
    87    44   107     1
    88    44   108     1
    89    45    46     1
    90    45   109     1
    91    46    47     2
    92    46    48     1
    93    48    49     1
    94    48   110     1
    95    49    50     1
    96    49    54     1
    97    49   111     1
    98    50    51     1
    99    50   112     1
   100    50   113     1
   101    51    52     1
   102    51    53     1
   103    51   114     1
   104    52   115     1
   105    52   116     1
   106    52   117     1
   107    53   118     1
   108    53   119     1
   109    53   120     1
   110    54    55     2
   111    54    56     1
   112    56    57     1
   113    56   121     1
   114    57    58     1
   115    57   122     1
   116    57   123     1
   117    58    59     2
   118    58    60     1
   119    60   124     1
   120    60   125     1
   121    61    62     1
   122    61   126     1
   123    61   127     1
   124    62    63     2
   125    62    64     1
   126    64   128     1
   127    64   129     1
   128    65    66     1
   129    65   130     1
   130    65   131     1
   131    66    67     1
   132    66   132     1
   133    66   133     1
   134    67    68     2
   135    67    69     1
   136    69   134     1
   137    69   135     1
