@<TRIPOS>MOLECULE
****
144 147 1 0 0
SMALL
USER_CHARGES


@<TRIPOS>ATOM
      1 C         -37.1461   -1.6421    3.4698 C.3       1     ****    0.0000
      2 C         -37.9215   -0.4270    4.0504 C.2       1     ****    0.0000
      3 C         -37.2133    0.5222    4.7194 C.2       1     ****    0.0000
      4 N         -37.8072    1.6736    5.1917 N.am      1     ****    0.0000
      5 C         -37.2820    2.3656    6.3677 C.3       1     ****    0.0000
      6 C         -38.4213    2.9517    7.2120 C.3       1     ****    0.0000
      7 C         -39.2010    4.0219    6.4363 C.3       1     ****    0.0000
      8 C         -39.0316    3.8390    4.9227 C.3       1     ****    0.0000
      9 C         -38.9422    2.3488    4.5372 C.3       1     ****    0.0000
     10 C         -38.8135    2.3221    3.0065 C.2       1     ****    0.0000
     11 O         -40.0378    2.2707    2.4116 O.3       1     ****    0.0000
     12 C         -40.1206    2.4089    1.0191 C.3       1     ****    0.0000
     13 C         -41.3518    1.6258    0.5415 C.3       1     ****    0.0000
     14 C         -41.2270    0.1043    0.6010 C.2       1     ****    0.0000
     15 C         -42.5076   -0.6882    0.3427 C.3       1     ****    0.0000
     16 C         -42.3039   -1.8469   -0.6115 C.2       1     ****    0.0000
     17 C         -41.7624   -3.0596   -0.3938 C.2       1     ****    0.0000
     18 C         -41.6772   -4.0700   -1.5255 C.3       1     ****    0.0000
     19 C         -40.6067   -3.7160   -2.5588 C.3       1     ****    0.0000
     20 C         -40.6960   -4.5569   -3.8384 C.2       1     ****    0.0000
     21 C         -39.8865   -4.1001   -5.0497 C.3       1     ****    0.0000
     22 C         -39.2320   -5.2875   -5.7897 C.3       1     ****    0.0000
     23 C         -38.0040   -4.8966   -6.6408 C.3       1     ****    0.0000
     24 C         -36.9902   -4.1687   -5.7834 C.2       1     ****    0.0000
     25 C         -36.3902   -4.7223   -4.7165 C.2       1     ****    0.0000
     26 C         -35.6370   -4.0168   -3.8542 C.2       1     ****    0.0000
     27 C         -35.1277   -4.5645   -2.7379 C.2       1     ****    0.0000
     28 C         -34.5055   -3.9791   -1.6986 C.2       1     ****    0.0000
     29 C         -34.1653   -2.6997   -1.4463 C.2       1     ****    0.0000
     30 C         -33.6963   -2.3059   -0.0438 C.3       1     ****    0.0000
     31 C         -34.8438   -1.5399    0.6427 C.3       1     ****    0.0000
     32 C         -35.3101   -2.0969    1.9972 C.3       1     ****    0.0000
     33 C         -35.8981   -3.5089    1.9001 C.3       1     ****    0.0000
     34 C         -37.4067   -3.4486    1.6810 C.3       1     ****    0.0000
     35 C         -38.0698   -2.6948    2.8464 C.3       1     ****    0.0000
     36 O         -36.2297   -1.1662    2.5093 O.3       1     ****    0.0000
     37 O         -39.1258   -0.3410    3.9194 O.2       1     ****    0.0000
     38 O         -36.0398    0.3269    4.9604 O.2       1     ****    0.0000
     39 O         -37.7434    2.3824    2.4434 O.2       1     ****    0.0000
     40 O         -40.1657   -0.4357    0.8151 O.2       1     ****    0.0000
     41 O         -41.4041   -5.5376   -3.8730 O.2       1     ****    0.0000
     42 C         -38.6468   -3.6608    3.8949 C.3       1     ****    0.0000
     43 C         -34.3412   -1.5401   -2.3985 C.3       1     ****    0.0000
     44 C         -37.3827   -6.1183   -7.3358 C.3       1     ****    0.0000
     45 C         -40.7805   -3.2709   -5.9845 C.3       1     ****    0.0000
     46 C         -41.1870   -3.5402    0.9140 C.3       1     ****    0.0000
     47 C         -43.2692   -1.0219    1.6335 C.3       1     ****    0.0000
     48 O         -32.5112   -1.5410   -0.1272 O.3       1     ****    0.0000
     49 C         -31.8554   -1.3830    1.1134 C.3       1     ****    0.0000
     50 O         -39.3059   -3.6646   -2.0078 O.3       1     ****    0.0000
     51 C         -38.7501   -4.9231   -1.6954 C.3       1     ****    0.0000
     52 C         -39.8101    4.1479   -0.8287 C.3       1     ****    0.0000
     53 C         -40.1378    3.9119    0.6621 C.3       1     ****    0.0000
     54 C         -41.4468    4.5977    1.0894 C.3       1     ****    0.0000
     55 C         -39.7261    5.6167   -1.2967 C.3       1     ****    0.0000
     56 C         -38.6702    6.4352   -0.5330 C.3       1     ****    0.0000
     57 C         -38.5786    7.8860   -1.0256 C.3       1     ****    0.0000
     58 C         -38.2820    7.9055   -2.5217 C.3       1     ****    0.0000
     59 C         -39.3310    7.1174   -3.3033 C.3       1     ****    0.0000
     60 C         -39.4158    5.6694   -2.8051 C.3       1     ****    0.0000
     61 O         -37.5509    8.5170   -0.3036 O.3       1     ****    0.0000
     62 C         -37.8444    9.8495    0.0586 C.3       1     ****    0.0000
     63 O         -38.2784    9.2275   -3.0053 O.3       1     ****    0.0000
     64 O         -42.9216   -4.1652   -2.2030 O.3       1     ****    0.0000
     65 O         -36.3531   -2.2012    4.5084 O.3       1     ****    0.0000
     66 H         -39.8978    1.8734    4.8618 H         1     ****    0.0000
     67 H         -34.4258   -2.1167    2.6800 H         1     ****    0.0000
     68 H         -36.5621    3.1570    6.0558 H         1     ****    0.0000
     69 H         -36.7228    1.6522    7.0195 H         1     ****    0.0000
     70 H         -39.1075    2.1170    7.4964 H         1     ****    0.0000
     71 H         -38.0274    3.3802    8.1642 H         1     ****    0.0000
     72 H         -38.8501    5.0433    6.7192 H         1     ****    0.0000
     73 H         -40.2807    3.9652    6.7143 H         1     ****    0.0000
     74 H         -39.8760    4.3400    4.3913 H         1     ****    0.0000
     75 H         -38.1006    4.3548    4.5849 H         1     ****    0.0000
     76 H         -39.2258    1.9479    0.5394 H         1     ****    0.0000
     77 H         -41.5695    1.8724   -0.5228 H         1     ****    0.0000
     78 H         -42.2378    1.9218    1.1497 H         1     ****    0.0000
     79 H         -43.1838    0.0130   -0.2131 H         1     ****    0.0000
     80 H         -42.6578   -1.6486   -1.6395 H         1     ****    0.0000
     81 H         -41.5169   -5.0890   -1.1077 H         1     ****    0.0000
     82 H         -40.8256   -2.6757   -2.9058 H         1     ****    0.0000
     83 H         -39.0878   -3.4347   -4.6458 H         1     ****    0.0000
     84 H         -38.9079   -6.0461   -5.0391 H         1     ****    0.0000
     85 H         -39.9911   -5.7946   -6.4300 H         1     ****    0.0000
     86 H         -38.3421   -4.1952   -7.4439 H         1     ****    0.0000
     87 H         -36.8372   -3.0991   -6.0098 H         1     ****    0.0000
     88 H         -36.5842   -5.7886   -4.5151 H         1     ****    0.0000
     89 H         -35.5151   -2.9476   -4.0638 H         1     ****    0.0000
     90 H         -35.3096   -5.6496   -2.6075 H         1     ****    0.0000
     91 H         -34.2911   -4.6844   -0.8734 H         1     ****    0.0000
     92 H         -33.4479   -3.2235    0.5357 H         1     ****    0.0000
     93 H         -34.5707   -0.4637    0.7499 H         1     ****    0.0000
     94 H         -35.7447   -1.5308   -0.0156 H         1     ****    0.0000
     95 H         -35.6907   -4.0893    2.8293 H         1     ****    0.0000
     96 H         -35.4294   -4.0972    1.0819 H         1     ****    0.0000
     97 H         -37.5975   -2.9171    0.7172 H         1     ****    0.0000
     98 H         -37.8335   -4.4715    1.5642 H         1     ****    0.0000
     99 H         -38.9413   -2.1828    2.3717 H         1     ****    0.0000
    100 H         -39.1265   -3.1061    4.7331 H         1     ****    0.0000
    101 H         -39.4249   -4.3229    3.4508 H         1     ****    0.0000
    102 H         -37.8572   -4.3183    4.3230 H         1     ****    0.0000
    103 H         -33.8642   -1.7519   -3.3809 H         1     ****    0.0000
    104 H         -35.4178   -1.2852   -2.5226 H         1     ****    0.0000
    105 H         -33.8444   -0.6160   -2.0313 H         1     ****    0.0000
    106 H         -36.4998   -5.8230   -7.9481 H         1     ****    0.0000
    107 H         -38.1171   -6.6041   -8.0184 H         1     ****    0.0000
    108 H         -37.0484   -6.8898   -6.6066 H         1     ****    0.0000
    109 H         -40.2019   -2.8532   -6.8387 H         1     ****    0.0000
    110 H         -41.2384   -2.4103   -5.4452 H         1     ****    0.0000
    111 H         -41.6099   -3.8868   -6.4005 H         1     ****    0.0000
    112 H         -41.1114   -2.7596    1.6937 H         1     ****    0.0000
    113 H         -41.8056   -4.3699    1.3239 H         1     ****    0.0000
    114 H         -40.1535   -3.9190    0.7594 H         1     ****    0.0000
    115 H         -44.1927   -1.6048    1.4126 H         1     ****    0.0000
    116 H         -43.5811   -0.0902    2.1597 H         1     ****    0.0000
    117 H         -42.6697   -1.5971    2.3685 H         1     ****    0.0000
    118 H         -30.9378   -0.7777    0.9392 H         1     ****    0.0000
    119 H         -32.5008   -0.8402    1.8367 H         1     ****    0.0000
    120 H         -31.5528   -2.3721    1.5230 H         1     ****    0.0000
    121 H         -37.7337   -4.7486   -1.2773 H         1     ****    0.0000
    122 H         -39.3522   -5.4517   -0.9280 H         1     ****    0.0000
    123 H         -38.6478   -5.5462   -2.6093 H         1     ****    0.0000
    124 H         -38.8357    3.6558   -1.0617 H         1     ****    0.0000
    125 H         -40.5817    3.6356   -1.4489 H         1     ****    0.0000
    126 H         -39.3104    4.3821    1.2509 H         1     ****    0.0000
    127 H         -41.7154    4.3499    2.1410 H         1     ****    0.0000
    128 H         -41.3662    5.7066    1.0424 H         1     ****    0.0000
    129 H         -42.2960    4.2960    0.4365 H         1     ****    0.0000
    130 H         -40.7240    6.0971   -1.1454 H         1     ****    0.0000
    131 H         -38.9152    6.4558    0.5547 H         1     ****    0.0000
    132 H         -37.6764    5.9395   -0.6383 H         1     ****    0.0000
    133 H         -39.5576    8.3812   -0.8245 H         1     ****    0.0000
    134 H         -37.2681    7.4862   -2.7194 H         1     ****    0.0000
    135 H         -39.0804    7.1288   -4.3911 H         1     ****    0.0000
    136 H         -40.3279    7.6062   -3.1912 H         1     ****    0.0000
    137 H         -40.2038    5.1260   -3.3793 H         1     ****    0.0000
    138 H         -38.4470    5.1547   -3.0083 H         1     ****    0.0000
    139 H         -36.9501   10.2693    0.5711 H         1     ****    0.0000
    140 H         -38.0641   10.4707   -0.8351 H         1     ****    0.0000
    141 H         -38.7002    9.8717    0.7699 H         1     ****    0.0000
    142 H         -37.9799    9.2334   -3.9175 H         1     ****    0.0000
    143 H         -42.9071   -4.9553   -2.7530 H         1     ****    0.0000
    144 H         -35.6450   -1.5901    4.7228 H         1     ****    0.0000
@<TRIPOS>BOND
     1     1     2     1
     2     1    35     1
     3     1    36     1
     4     1    65     1
     5     2     3     1
     6     2    37     2
     7     3     4     1
     8     3    38     2
     9     4     5     1
    10     4     9     1
    11     5     6     1
    12     5    68     1
    13     5    69     1
    14     6     7     1
    15     6    70     1
    16     6    71     1
    17     7     8     1
    18     7    72     1
    19     7    73     1
    20     8     9     1
    21     8    74     1
    22     8    75     1
    23     9    10     1
    24     9    66     1
    25    10    11     1
    26    10    39     2
    27    11    12     1
    28    12    13     1
    29    12    53     1
    30    12    76     1
    31    13    14     1
    32    13    77     1
    33    13    78     1
    34    14    15     1
    35    14    40     2
    36    15    16     1
    37    15    47     1
    38    15    79     1
    39    16    17     2
    40    16    80     1
    41    17    18     1
    42    17    46     1
    43    18    19     1
    44    18    64     1
    45    18    81     1
    46    19    20     1
    47    19    50     1
    48    19    82     1
    49    20    21     1
    50    20    41     2
    51    21    22     1
    52    21    45     1
    53    21    83     1
    54    22    23     1
    55    22    84     1
    56    22    85     1
    57    23    24     1
    58    23    44     1
    59    23    86     1
    60    24    25     2
    61    24    87     1
    62    25    26     1
    63    25    88     1
    64    26    27     2
    65    26    89     1
    66    27    28     1
    67    27    90     1
    68    28    29     2
    69    28    91     1
    70    29    30     1
    71    29    43     1
    72    30    31     1
    73    30    48     1
    74    30    92     1
    75    31    32     1
    76    31    93     1
    77    31    94     1
    78    32    33     1
    79    32    36     1
    80    32    67     1
    81    33    34     1
    82    33    95     1
    83    33    96     1
    84    34    35     1
    85    34    97     1
    86    34    98     1
    87    35    42     1
    88    35    99     1
    89    42   100     1
    90    42   101     1
    91    42   102     1
    92    43   103     1
    93    43   104     1
    94    43   105     1
    95    44   106     1
    96    44   107     1
    97    44   108     1
    98    45   109     1
    99    45   110     1
   100    45   111     1
   101    46   112     1
   102    46   113     1
   103    46   114     1
   104    47   115     1
   105    47   116     1
   106    47   117     1
   107    48    49     1
   108    49   118     1
   109    49   119     1
   110    49   120     1
   111    50    51     1
   112    51   121     1
   113    51   122     1
   114    51   123     1
   115    52    53     1
   116    52    55     1
   117    52   124     1
   118    52   125     1
   119    53    54     1
   120    53   126     1
   121    54   127     1
   122    54   128     1
   123    54   129     1
   124    55    56     1
   125    55    60     1
   126    55   130     1
   127    56    57     1
   128    56   131     1
   129    56   132     1
   130    57    58     1
   131    57    61     1
   132    57   133     1
   133    58    59     1
   134    58    63     1
   135    58   134     1
   136    59    60     1
   137    59   135     1
   138    59   136     1
   139    60   137     1
   140    60   138     1
   141    61    62     1
   142    62   139     1
   143    62   140     1
   144    62   141     1
   145    63   142     1
   146    64   143     1
   147    65   144     1
